-------------------------------------------------------
          Amber 14 SANDER                              2014
          -------------------------------------------------------

  [-O]verwriting output

File Assignments:

 Here is the input file:

*******************************************************
*****************************       mdin
*******************************************************
Runs equilibrium stage
 &cntrl
  imin = 0,
  ntx = 5,
  irest = 1,
  ntpr = 1000,
  ntwr = 1000,
  ntwe = 0,
  ntxo = 1,
  ntwx = 2500,
  ntwprt = 1802,
  ioutfm = 1,
  iwrap = 1,
  ntf = 2,
  ntc = 2,
  cut = 9.0,
  ntt = 3,
  temp0 = 298.15,
  gamma_ln = 1.0,
  ig = -1,
  ntp = 1,
  barostat = 2,
  nstlim = 500000,
  dt = 0.004,
  ntr = 1,
  restraint_wt = 50.0,
  restraintmask = ':1-3',
  nmropt = 1,
  pencut = -1,
 /
 &wt type = 'END', /
DISANG=disang03.rest
LISTOUT=POUT

Note: ig = -1. Setting random seed to   844831 based on wallclock time in
      microseconds.

--------------------------------------------------------------------------------
   1.  RESOURCE   USE:
--------------------------------------------------------------------------------

 getting new box info from bottom of inpcrd
 NATOM  =   40866 NTYPES =      18 NBONH =   39890 MBONA  =     933
 NTHETH =    2036 MTHETA =    1252 NPHIH =    3990 MPHIA  =    3859
 NHPARM =       0 NPARM  =       0 NNB   =   61967 NRES   =   13177
 NBONA  =     933 NTHETA =    1252 NPHIA =    3859 NUMBND =      87
 NUMANG =     186 NPTRA  =     207 NATYP =      51 NPHB   =       1
 IFBOX  =       1 NMXRS  =      29 IFCAP =       0 NEXTRA =       0
 NCOPY  =       0

     BOX TYPE: RECTILINEAR

--------------------------------------------------------------------------------
   2.  CONTROL  DATA  FOR  THE  RUN
--------------------------------------------------------------------------------

default_name

General flags:
     imin    =       0, nmropt  =       1

Nature and format of input:
     ntx     =       5, irest   =       1, ntrx    =       1

Nature and format of output:
     ntxo    =       1, ntpr    =    1000, ntrx    =       1, ntwr    =    1000
     iwrap   =       1, ntwx    =    2500, ntwv    =       0, ntwe    =       0
     ioutfm  =       1, ntwprt  =    1802, idecomp =       0, rbornstat=      0

Potential function:
     ntf     =       2, ntb     =       2, igb     =       0, nsnb    =      25
     ipol    =       0, gbsa    =       0, iesp    =       0
     dielc   =   1.00000, cut     =   9.00000, intdiel =   1.00000

Frozen or restrained atoms:
     ibelly  =       0, ntr     =       1
     restraint_wt =  50.00000

Molecular dynamics:
     nstlim  =    500000, nscm    =         0, nrespa  =         1
     t       =   0.00000, dt      =   0.00400, vlimit  =  -1.00000

Langevin dynamics temperature regulation:
     ig      =  844831
     temp0   = 298.15000, tempi   =   0.00000, gamma_ln=   1.00000

Pressure regulation:
     ntp     =       1
     pres0   =   1.00000, comp    =  44.60000, taup    =   1.00000
     Monte-Carlo Barostat:
     mcbarint  =     100

SHAKE:
     ntc     =       2, jfastw  =       0
     tol     =   0.00001

NMR refinement options:
     iscale  =       0, noeskp  =       1, ipnlty  =       1, mxsub   =       1
     scalm   = 100.00000, pencut  =  -1.00000, tausw   =   0.10000

Ewald parameters:
     verbose =       0, ew_type =       0, nbflag  =       1, use_pme =       1
     vdwmeth =       1, eedmeth =       1, netfrc  =       1
     Box X =   64.379   Box Y =   59.314   Box Z =  108.576
     Alpha =   90.000   Beta  =   90.000   Gamma =   90.000
     NFFT1 =   64       NFFT2 =   64       NFFT3 =  120
     Cutoff=    9.000   Tol   =0.100E-04
     Ewald Coefficient =  0.30768
     Interpolation order =    4

    LOADING THE CONSTRAINED ATOMS AS GROUPS

   5.  REFERENCE ATOM COORDINATES

  default_name
     Mask :1-3; matches     3 atoms

--------------------------------------------------------------------------------
   3.  ATOMIC COORDINATES AND VELOCITIES
--------------------------------------------------------------------------------

default_name
 begin time read from input coords =  6172.000 ps

           Begin reading energy term weight changes/NMR restraints
 WEIGHT CHANGES:
                         ** No weight changes given **

 RESTRAINTS:
 Requested file redirections:
  DISANG    = disang03.rest
  LISTOUT   = POUT
 Restraints will be read from file: disang03.rest
Here are comments from the DISANG input file:
# Anchor atoms  :58@CA  :79@CA  :105@CA  :113@C9  :113@C3  :113@C11  stage = equ

                       Number of restraints read =    54

                  Done reading weight changes/NMR restraints

 Number of triangulated 3-point waters found:    13000

     Sum of charges from parm topology file =  -0.00000106
     Forcing neutrality...

--------------------------------------------------------------------------------
   4.  RESULTS
 NSTEP =     1000   TIME(PS) =    6176.000  TEMP(K) =   297.46  PRESS =     0.0
 Etot   =   -107859.6053  EKtot   =     24444.8066  EPtot      =   -132304.4119
 BOND   =       409.7665  ANGLE   =       957.4157  DIHED      =      1390.1870
 1-4 NB =       416.5768  1-4 EEL =      5418.8429  VDWAALS    =     17609.2045
 EELEC  =   -158517.0759  EHBOND  =         0.0000  RESTRAINT  =        10.6707
 EAMBER (non-restraint)  =   -132315.0826
 EKCMT  =         0.0000  VIRIAL  =         0.0000  VOLUME     =    414376.9506
                                                    Density    =         1.0007
 ------------------------------------------------------------------------------

      A V E R A G E S   O V E R     500 S T E P S

 NSTEP =   500000   TIME(PS) =    8172.000  TEMP(K) =   298.39  PRESS =     0.0
 Etot   =   -107782.4592  EKtot   =     24521.0118  EPtot      =   -132303.4710
 BOND   =       419.8719  ANGLE   =      1001.8928  DIHED      =      1374.9252
 1-4 NB =       422.1745  1-4 EEL =      5427.4397  VDWAALS    =     17674.5682
 EELEC  =   -158635.5325  EHBOND  =         0.0000  RESTRAINT  =        11.1891
 EAMBER (non-restraint)  =   -132314.6601
 EKCMT  =         0.0000  VIRIAL  =         0.0000  VOLUME     =    412054.6325
                                                    Density    =         1.0063
 ------------------------------------------------------------------------------

      R M S  F L U C T U A T I O N S

 NSTEP =   500000   TIME(PS) =    8172.000  TEMP(K) =     1.41  PRESS =     0.0
 Etot   =       197.3187  EKtot   =       115.5261  EPtot      =       170.2680
 BOND   =        18.9594  ANGLE   =        24.0239  DIHED      =        14.1114
 1-4 NB =         8.9017  1-4 EEL =        22.4457  VDWAALS    =       173.3831
 EELEC  =       273.4220  EHBOND  =         0.0000  RESTRAINT  =         2.4489
 EAMBER (non-restraint)  =       167.8191
 EKCMT  =         0.0000  VIRIAL  =         0.0000  VOLUME     =       964.7770
                                                    Density    =         0.0024
 ------------------------------------------------------------------------------
