-------------------------------------------------------
          Amber 14 SANDER                              2014
          -------------------------------------------------------

  [-O]verwriting output

File Assignments:

 Here is the input file:

*******************************************************
*****************************       mdin
*******************************************************
Runs equilibrium stage
 &cntrl
  imin = 0,
  ntx = 5,
  irest = 1,
  ntpr = 1000,
  ntwr = 1000,
  ntwe = 0,
  ntxo = 1,
  ntwx = 2500,
  ntwprt = 1802,
  ioutfm = 1,
  iwrap = 1,
  ntf = 2,
  ntc = 2,
  cut = 9.0,
  ntt = 3,
  temp0 = 298.15,
  gamma_ln = 1.0,
  ig = -1,
  ntp = 1,
  barostat = 2,
  nstlim = 500000,
  dt = 0.004,
  ntr = 1,
  restraint_wt = 50.0,
  restraintmask = ':1-3',
  nmropt = 1,
  pencut = -1,
 /
 &wt type = 'END', /
DISANG=disang07.rest
LISTOUT=POUT

Note: ig = -1. Setting random seed to   222825 based on wallclock time in
      microseconds.

--------------------------------------------------------------------------------
   1.  RESOURCE   USE:
--------------------------------------------------------------------------------

 getting new box info from bottom of inpcrd
 NATOM  =   40866 NTYPES =      18 NBONH =   39890 MBONA  =     933
 NTHETH =    2036 MTHETA =    1252 NPHIH =    3990 MPHIA  =    3859
 NHPARM =       0 NPARM  =       0 NNB   =   61967 NRES   =   13177
 NBONA  =     933 NTHETA =    1252 NPHIA =    3859 NUMBND =      87
 NUMANG =     186 NPTRA  =     207 NATYP =      51 NPHB   =       1
 IFBOX  =       1 NMXRS  =      29 IFCAP =       0 NEXTRA =       0
 NCOPY  =       0

     BOX TYPE: RECTILINEAR

--------------------------------------------------------------------------------
   2.  CONTROL  DATA  FOR  THE  RUN
--------------------------------------------------------------------------------

default_name

General flags:
     imin    =       0, nmropt  =       1

Nature and format of input:
     ntx     =       5, irest   =       1, ntrx    =       1

Nature and format of output:
     ntxo    =       1, ntpr    =    1000, ntrx    =       1, ntwr    =    1000
     iwrap   =       1, ntwx    =    2500, ntwv    =       0, ntwe    =       0
     ioutfm  =       1, ntwprt  =    1802, idecomp =       0, rbornstat=      0

Potential function:
     ntf     =       2, ntb     =       2, igb     =       0, nsnb    =      25
     ipol    =       0, gbsa    =       0, iesp    =       0
     dielc   =   1.00000, cut     =   9.00000, intdiel =   1.00000

Frozen or restrained atoms:
     ibelly  =       0, ntr     =       1
     restraint_wt =  50.00000

Molecular dynamics:
     nstlim  =    500000, nscm    =         0, nrespa  =         1
     t       =   0.00000, dt      =   0.00400, vlimit  =  -1.00000

Langevin dynamics temperature regulation:
     ig      =  222825
     temp0   = 298.15000, tempi   =   0.00000, gamma_ln=   1.00000

Pressure regulation:
     ntp     =       1
     pres0   =   1.00000, comp    =  44.60000, taup    =   1.00000
     Monte-Carlo Barostat:
     mcbarint  =     100

SHAKE:
     ntc     =       2, jfastw  =       0
     tol     =   0.00001

NMR refinement options:
     iscale  =       0, noeskp  =       1, ipnlty  =       1, mxsub   =       1
     scalm   = 100.00000, pencut  =  -1.00000, tausw   =   0.10000

Ewald parameters:
     verbose =       0, ew_type =       0, nbflag  =       1, use_pme =       1
     vdwmeth =       1, eedmeth =       1, netfrc  =       1
     Box X =   64.186   Box Y =   59.137   Box Z =  108.251
     Alpha =   90.000   Beta  =   90.000   Gamma =   90.000
     NFFT1 =   64       NFFT2 =   64       NFFT3 =  120
     Cutoff=    9.000   Tol   =0.100E-04
     Ewald Coefficient =  0.30768
     Interpolation order =    4

    LOADING THE CONSTRAINED ATOMS AS GROUPS

   5.  REFERENCE ATOM COORDINATES

  default_name
     Mask :1-3; matches     3 atoms

--------------------------------------------------------------------------------
   3.  ATOMIC COORDINATES AND VELOCITIES
--------------------------------------------------------------------------------

default_name
 begin time read from input coords = 14172.000 ps

           Begin reading energy term weight changes/NMR restraints
 WEIGHT CHANGES:
                         ** No weight changes given **

 RESTRAINTS:
 Requested file redirections:
  DISANG    = disang07.rest
  LISTOUT   = POUT
 Restraints will be read from file: disang07.rest
Here are comments from the DISANG input file:
# Anchor atoms  :58@CA  :79@CA  :105@CA  :113@C9  :113@C3  :113@C11  stage = equ

                       Number of restraints read =    54

                  Done reading weight changes/NMR restraints

 Number of triangulated 3-point waters found:    13000

     Sum of charges from parm topology file =  -0.00000106
     Forcing neutrality...

--------------------------------------------------------------------------------
   4.  RESULTS
 NSTEP =     1000   TIME(PS) =   14176.000  TEMP(K) =   297.66  PRESS =     0.0
 Etot   =   -107989.1529  EKtot   =     24461.0840  EPtot      =   -132450.2368
 BOND   =       377.8876  ANGLE   =      1038.9846  DIHED      =      1366.1741
 1-4 NB =       411.6874  1-4 EEL =      5420.2041  VDWAALS    =     17681.3967
 EELEC  =   -158758.1968  EHBOND  =         0.0000  RESTRAINT  =        11.6254
 EAMBER (non-restraint)  =   -132461.8623
 EKCMT  =         0.0000  VIRIAL  =         0.0000  VOLUME     =    410896.1328
                                                    Density    =         1.0092
 ------------------------------------------------------------------------------

      A V E R A G E S   O V E R     500 S T E P S

 NSTEP =   500000   TIME(PS) =   16172.000  TEMP(K) =   298.32  PRESS =     0.0
 Etot   =   -107773.3312  EKtot   =     24515.0579  EPtot      =   -132288.3891
 BOND   =       419.3675  ANGLE   =      1002.4868  DIHED      =      1375.5430
 1-4 NB =       422.0087  1-4 EEL =      5436.1103  VDWAALS    =     17665.7313
 EELEC  =   -158620.6656  EHBOND  =         0.0000  RESTRAINT  =        11.0289
 EAMBER (non-restraint)  =   -132299.4180
 EKCMT  =         0.0000  VIRIAL  =         0.0000  VOLUME     =    412054.1051
                                                    Density    =         1.0063
 ------------------------------------------------------------------------------

      R M S  F L U C T U A T I O N S

 NSTEP =   500000   TIME(PS) =   16172.000  TEMP(K) =     1.43  PRESS =     0.0
 Etot   =       217.7635  EKtot   =       117.8872  EPtot      =       186.1186
 BOND   =        19.6033  ANGLE   =        24.0365  DIHED      =        13.4408
 1-4 NB =         8.5959  1-4 EEL =        22.9513  VDWAALS    =       174.0662
 EELEC  =       294.9530  EHBOND  =         0.0000  RESTRAINT  =         2.4604
 EAMBER (non-restraint)  =       183.6582
 EKCMT  =         0.0000  VIRIAL  =         0.0000  VOLUME     =       982.1832
                                                    Density    =         0.0024
 ------------------------------------------------------------------------------
