-------------------------------------------------------
          Amber 14 SANDER                              2014
          -------------------------------------------------------

  [-O]verwriting output

File Assignments:

 Here is the input file:

*******************************************************
*****************************       eqnpt.in
*******************************************************
Equilibrate, NPT.
 &cntrl
  imin = 0,
  ntx = 5,
  irest = 1,
  ntpr = 500,
  ntwr = 500,
  ntwx = 500,
  ioutfm = 1,
  iwrap = 1,
  ntf = 2,
  ntc = 2,
  cut = 9.0,
  ntt = 3,
  temp0 = 298.15,
  gamma_ln = 1.0,
  ig = -1,
  ntp = 1,
  barostat = 2,
  nstlim = 3500,
  dt = 0.004,
  ntr = 1,
  restraint_wt = 50.0,
  restraintmask = ':1-3',
  nmropt = 1,
  pencut = -1,
 /
 &wt type = 'END', /
DISANG=disang.rest
LISTOUT=POUT

Note: ig = -1. Setting random seed to   502668 based on wallclock time in
      microseconds.

--------------------------------------------------------------------------------
   1.  RESOURCE   USE:
--------------------------------------------------------------------------------

 getting new box info from bottom of inpcrd
 NATOM  =   40866 NTYPES =      18 NBONH =   39890 MBONA  =     933
 NTHETH =    2036 MTHETA =    1252 NPHIH =    3990 MPHIA  =    3859
 NHPARM =       0 NPARM  =       0 NNB   =   61967 NRES   =   13177
 NBONA  =     933 NTHETA =    1252 NPHIA =    3859 NUMBND =      87
 NUMANG =     186 NPTRA  =     207 NATYP =      51 NPHB   =       1
 IFBOX  =       1 NMXRS  =      29 IFCAP =       0 NEXTRA =       0
 NCOPY  =       0

     BOX TYPE: RECTILINEAR

--------------------------------------------------------------------------------
   2.  CONTROL  DATA  FOR  THE  RUN
--------------------------------------------------------------------------------

default_name

General flags:
     imin    =       0, nmropt  =       1

Nature and format of input:
     ntx     =       5, irest   =       1, ntrx    =       1

Nature and format of output:
     ntxo    =       1, ntpr    =     500, ntrx    =       1, ntwr    =     500
     iwrap   =       1, ntwx    =     500, ntwv    =       0, ntwe    =       0
     ioutfm  =       1, ntwprt  =       0, idecomp =       0, rbornstat=      0

Potential function:
     ntf     =       2, ntb     =       2, igb     =       0, nsnb    =      25
     ipol    =       0, gbsa    =       0, iesp    =       0
     dielc   =   1.00000, cut     =   9.00000, intdiel =   1.00000

Frozen or restrained atoms:
     ibelly  =       0, ntr     =       1
     restraint_wt =  50.00000

Molecular dynamics:
     nstlim  =      3500, nscm    =         0, nrespa  =         1
     t       =   0.00000, dt      =   0.00400, vlimit  =  -1.00000

Langevin dynamics temperature regulation:
     ig      =  502668
     temp0   = 298.15000, tempi   =   0.00000, gamma_ln=   1.00000

Pressure regulation:
     ntp     =       1
     pres0   =   1.00000, comp    =  44.60000, taup    =   1.00000
     Monte-Carlo Barostat:
     mcbarint  =     100

SHAKE:
     ntc     =       2, jfastw  =       0
     tol     =   0.00001

NMR refinement options:
     iscale  =       0, noeskp  =       1, ipnlty  =       1, mxsub   =       1
     scalm   = 100.00000, pencut  =  -1.00000, tausw   =   0.10000

Ewald parameters:
     verbose =       0, ew_type =       0, nbflag  =       1, use_pme =       1
     vdwmeth =       1, eedmeth =       1, netfrc  =       1
     Box X =   64.010   Box Y =   59.590   Box Z =  114.096
     Alpha =   90.000   Beta  =   90.000   Gamma =   90.000
     NFFT1 =   64       NFFT2 =   64       NFFT3 =  120
     Cutoff=    9.000   Tol   =0.100E-04
     Ewald Coefficient =  0.30768
     Interpolation order =    4

    LOADING THE CONSTRAINED ATOMS AS GROUPS

   5.  REFERENCE ATOM COORDINATES

  default_name
     Mask :1-3; matches     3 atoms

--------------------------------------------------------------------------------
   3.  ATOMIC COORDINATES AND VELOCITIES
--------------------------------------------------------------------------------

default_name
 begin time read from input coords =   144.000 ps

           Begin reading energy term weight changes/NMR restraints
 WEIGHT CHANGES:
                         ** No weight changes given **

 RESTRAINTS:
 Requested file redirections:
  DISANG    = disang.rest
  LISTOUT   = POUT
 Restraints will be read from file: disang.rest
Here are comments from the DISANG input file:
# Anchor atoms  :58@CA  :79@CA  :105@CA  :113@C3  :113@C9  :113@C11  stage = pre

                       Number of restraints read =    54

                  Done reading weight changes/NMR restraints

 Number of triangulated 3-point waters found:    13000

     Sum of charges from parm topology file =  -0.00000106
     Forcing neutrality...

--------------------------------------------------------------------------------
   4.  RESULTS
 NSTEP =      500   TIME(PS) =     146.000  TEMP(K) =   299.90  PRESS =     0.0
 Etot   =   -106381.4935  EKtot   =     24645.0566  EPtot      =   -131026.5501
 BOND   =       447.3731  ANGLE   =       977.0371  DIHED      =      1374.9562
 1-4 NB =       433.1678  1-4 EEL =      5458.0989  VDWAALS    =     17936.8428
 EELEC  =   -157694.3912  EHBOND  =         0.0000  RESTRAINT  =        40.3652
 EAMBER (non-restraint)  =   -131066.9153
 EKCMT  =         0.0000  VIRIAL  =         0.0000  VOLUME     =    430383.2153
                                                    Density    =         0.9635
 ------------------------------------------------------------------------------

      A V E R A G E S   O V E R       7 S T E P S

 NSTEP =     3500   TIME(PS) =     158.000  TEMP(K) =   298.92  PRESS =     0.0
 Etot   =   -106762.1649  EKtot   =     24564.4227  EPtot      =   -131326.5876
 BOND   =       431.7886  ANGLE   =       993.1228  DIHED      =      1375.6955
 1-4 NB =       419.0524  1-4 EEL =      5432.7656  VDWAALS    =     17367.6881
 EELEC  =   -157368.2480  EHBOND  =         0.0000  RESTRAINT  =        21.5475
 EAMBER (non-restraint)  =   -131348.1351
 EKCMT  =         0.0000  VIRIAL  =         0.0000  VOLUME     =    425648.7257
                                                    Density    =         0.9743
 ------------------------------------------------------------------------------

      R M S  F L U C T U A T I O N S

 NSTEP =     3500   TIME(PS) =     158.000  TEMP(K) =     1.53  PRESS =     0.0
 Etot   =       301.2721  EKtot   =       125.5373  EPtot      =       318.2635
 BOND   =        13.2001  ANGLE   =        22.0693  DIHED      =         5.8208
 1-4 NB =         9.3270  1-4 EEL =        20.7510  VDWAALS    =       245.5473
 EELEC  =       349.8034  EHBOND  =         0.0000  RESTRAINT  =         8.6354
 EAMBER (non-restraint)  =       309.6281
 EKCMT  =         0.0000  VIRIAL  =         0.0000  VOLUME     =      4310.0895
                                                    Density    =         0.0099
 ------------------------------------------------------------------------------
