-------------------------------------------------------
          Amber 20 PMEMD                              2020
          -------------------------------------------------------

  [-O]verwriting output

File Assignments:

 Here is the input file:

*******************************************************
*****************************       eqnpt.in
*******************************************************
Equilibrate, NPT.
 &cntrl
  imin = 0,
  ntx = 5,
  irest = 1,
  ntpr = 500,
  ntwr = 500,
  ntwx = 500,
  ioutfm = 1,
  iwrap = 1,
  ntf = 2,
  ntc = 2,
  cut = 9.0,
  ntt = 3,
  temp0 = 298.15,
  gamma_ln = 1.0,
  ig = -1,
  ntp = 1,
  barostat = 2,
  nstlim = 3500,
  dt = 0.004,
  nmropt = 1,
  pencut = -1,
  icfe = 1, clambda = 0.00922,
  timask1 = ':1', timask2 = ':2',
  ifsc=0, crgmask = ':2',
 /
 &wt type = 'END', /
DISANG=disang.rest
LISTOUT=POUT

Note: ig = -1. Setting random seed to   103823 based on wallclock time in
      microseconds.

--------------------------------------------------------------------------------
   1.  RESOURCE   USE:
--------------------------------------------------------------------------------

 getting box info from netcdf restart file
 NATOM  =    5675 NTYPES =      11 NBONH =    5627 MBONA  =      34
 NTHETH =      52 MTHETA =      46 NPHIH =      82 MPHIA  =      70
 NHPARM =       0 NPARM  =       0 NNB   =    7766 NRES   =    1885
 NBONA  =      34 NTHETA =      46 NPHIA =      70 NUMBND =      18
 NUMANG =      25 NPTRA  =      11 NATYP =      16 NPHB   =       0
 IFBOX  =       1 NMXRS  =      29 IFCAP =       0 NEXTRA =       0
 NCOPY  =       0

     BOX TYPE: RECTILINEAR

--------------------------------------------------------------------------------
   2.  CONTROL  DATA  FOR  THE  RUN
--------------------------------------------------------------------------------

default_name

General flags:
     imin    =       0, nmropt  =       1

Nature and format of input:
     ntx     =       5, irest   =       1, ntrx    =       1

Nature and format of output:
     ntxo    =       2, ntpr    =     500, ntrx    =       1, ntwr    =     500
     iwrap   =       1, ntwx    =     500, ntwv    =       0, ntwe    =       0
     ioutfm  =       1, ntwprt  =       0, idecomp =       0, rbornstat=      0

Potential function:
     ntf     =       2, ntb     =       2, igb     =       0, nsnb    =      25
     ipol    =       0, gbsa    =       0, iesp    =       0
     dielc   =   1.00000, cut     =   9.00000, intdiel =   1.00000

Frozen or restrained atoms:
     ibelly  =       0, ntr     =       0

Molecular dynamics:
     nstlim  =      3500, nscm    =      1000, nrespa  =         1
     t       =   0.00000, dt      =   0.00400, vlimit  =  -1.00000

Langevin dynamics temperature regulation:
     ig      =  103823
     temp0   = 298.15000, tempi   =   0.00000, gamma_ln=   1.00000

Pressure regulation:
     ntp     =       1
     pres0   =   1.00000, comp    =  44.60000, taup    =   1.00000
     Monte-Carlo Barostat:
     mcbarint  =     100

SHAKE:
     ntc     =       2, jfastw  =       0
     tol     =   0.00001

NMR refinement options:
     iscale  =       0, noeskp  =       1, ipnlty  =       1, mxsub   =       1
     scalm   = 100.00000, pencut  =  -1.00000, tausw   =   0.10000

Free energy options:
     icfe    =       1, ifsc    =       0, klambda =       1
     clambda =  0.0092, scalpha =  0.5000, scbeta  = 12.0000
     sceeorder =       2
     dynlmb =  0.0000 logdvdl =       0

Ewald parameters:
     verbose =       0, ew_type =       0, nbflag  =       1, use_pme =       1
     vdwmeth =       1, eedmeth =       1, netfrc  =       1
     Box X =   36.958   Box Y =   40.265   Box Z =   40.768
     Alpha =   90.000   Beta  =   90.000   Gamma =   90.000
     NFFT1 =   40       NFFT2 =   48       NFFT3 =   48
     Cutoff=    9.000   Tol   =0.100E-04
     Ewald Coefficient =  0.30768
     Interpolation order =    4
     TI Mask 1 :1; matches     29 atoms
     TI Mask 2 :2; matches     29 atoms
     TI region 1:    5646 atoms
     TI region 2:    5646 atoms
Removing charge of       0.1324 from atom      30
Removing charge of      -0.3482 from atom      31
Removing charge of       0.6867 from atom      32
Removing charge of      -0.6325 from atom      33
Removing charge of      -0.2038 from atom      34
Removing charge of       0.0953 from atom      35
Removing charge of      -0.3903 from atom      36
Removing charge of       0.3402 from atom      37
Removing charge of      -0.1179 from atom      38
Removing charge of      -0.1090 from atom      39
Removing charge of      -0.1345 from atom      40
Removing charge of      -0.1210 from atom      41
Removing charge of      -0.1345 from atom      42
Removing charge of      -0.1090 from atom      43
Removing charge of      -0.7500 from atom      44
Removing charge of       0.1891 from atom      45
Removing charge of       0.1660 from atom      46
Removing charge of       0.0607 from atom      47
Removing charge of       0.0607 from atom      48
Removing charge of       0.0607 from atom      49
Removing charge of       0.1440 from atom      50
Removing charge of       0.1360 from atom      51
Removing charge of       0.1340 from atom      52
Removing charge of       0.1360 from atom      53
Removing charge of       0.1440 from atom      54
Removing charge of       0.4328 from atom      55
Removing charge of       0.0440 from atom      56
Removing charge of       0.0440 from atom      57
Removing charge of       0.0440 from atom      58
Total charge of  -0.00000100 removed from      29 atoms
     Checking for mismatched coordinates.

--------------------------------------------------------------------------------
   3.  ATOMIC COORDINATES AND VELOCITIES
--------------------------------------------------------------------------------

default_name
 begin time read from input coords =   242.000 ps

           Begin reading energy term weight changes/NMR restraints
 WEIGHT CHANGES:
                         ** No weight changes given **

 RESTRAINTS:
 Requested file redirections:
  DISANG    = disang.rest
  LISTOUT   = POUT
 Restraints will be read from file: disang.rest
Here are comments from the DISANG input file:
# Anchor atoms  :58@CA  :79@CA  :105@CA  :1@C3  :1@C9  :1@C11  stage = fe  weigh

                       Number of restraints read =    17

                  Done reading weight changes/NMR restraints

 Number of triangulated 3-point waters found:     1867

     Sum of charges for TI region  1 =  -0.00000100
     Skip neutralizing charges...

     Sum of charges for TI region  2 =  -0.00000000
     Skip neutralizing charges...

--------------------------------------------------------------------------------
   4.  RESULTS
 NSTEP =      500   TIME(PS) =     244.000  TEMP(K) =   298.82  PRESS =     0.0
 Etot   =    -15724.0179  EKtot   =      3362.1999  EPtot      =    -19086.2178
 BOND   =        13.1364  ANGLE   =        15.7171  DIHED      =        11.1893
 1-4 NB =         8.5707  1-4 EEL =        35.3140  VDWAALS    =      2751.9995
 EELEC  =    -21926.5827  EHBOND  =         0.0000  RESTRAINT  =         4.4378
 EAMBER (non-restraint)  =    -19090.6557
 EKCMT  =         0.0000  VIRIAL  =         0.0000  VOLUME     =     59918.9443
                                                    Density    =         0.9511
 DV/DL  =         1.7172
 ------------------------------------------------------------------------------

      A V E R A G E S   O V E R       7 S T E P S

 NSTEP =     3500   TIME(PS) =     256.000  TEMP(K) =   301.79  PRESS =     0.0
 Etot   =    -15766.4191  EKtot   =      3395.5927  EPtot      =    -19162.0118
 BOND   =         9.0979  ANGLE   =        14.0419  DIHED      =        11.5431
 1-4 NB =         9.9466  1-4 EEL =        36.1269  VDWAALS    =      2726.1525
 EELEC  =    -21976.3072  EHBOND  =         0.0000  RESTRAINT  =         7.3865
 EAMBER (non-restraint)  =    -19169.3983
 EKCMT  =         0.0000  VIRIAL  =         0.0000  VOLUME     =     58046.6622
                                                    Density    =         0.9821
 DV/DL  =         0.2792
 ------------------------------------------------------------------------------

      R M S  F L U C T U A T I O N S

 NSTEP =     3500   TIME(PS) =     256.000  TEMP(K) =     3.47  PRESS =     0.0
 Etot   =        82.9703  EKtot   =        39.0428  EPtot      =       105.5147
 BOND   =         3.3298  ANGLE   =         2.1041  DIHED      =         2.2071
 1-4 NB =         0.8742  1-4 EEL =         0.7366  VDWAALS    =        79.6115
 EELEC  =       128.8871  EHBOND  =         0.0000  RESTRAINT  =         7.1401
 EAMBER (non-restraint)  =        98.3746
 EKCMT  =         0.0000  VIRIAL  =         0.0000  VOLUME     =      1007.0064
                                                    Density    =         0.0168
 DV/DL  =         7.4992
 ------------------------------------------------------------------------------

      A V E R A G E S   O V E R       7 S T E P S

 NSTEP =     3500   TIME(PS) =     256.000  TEMP(K) =   301.79  PRESS =     0.0
 Etot   =    -15766.4191  EKtot   =      3395.5927  EPtot      =    -19162.0118
 BOND   =         9.0979  ANGLE   =        14.0419  DIHED      =        11.5431
 1-4 NB =         9.9466  1-4 EEL =        36.1269  VDWAALS    =      2726.1525
 EELEC  =    -21976.3072  EHBOND  =         0.0000  RESTRAINT  =         7.3865
 EAMBER (non-restraint)  =    -19169.3983
 EKCMT  =         0.0000  VIRIAL  =         0.0000  VOLUME     =     58046.6622
                                                    Density    =         0.9821
 DV/DL  =         0.2792
 ------------------------------------------------------------------------------

      R M S  F L U C T U A T I O N S

 NSTEP =     3500   TIME(PS) =     256.000  TEMP(K) =     3.47  PRESS =     0.0
 Etot   =        82.9703  EKtot   =        39.0428  EPtot      =       105.5147
 BOND   =         3.3298  ANGLE   =         2.1041  DIHED      =         2.2071
 1-4 NB =         0.8742  1-4 EEL =         0.7366  VDWAALS    =        79.6115
 EELEC  =       128.8871  EHBOND  =         0.0000  RESTRAINT  =         7.1401
 EAMBER (non-restraint)  =        98.3746
 EKCMT  =         0.0000  VIRIAL  =         0.0000  VOLUME     =      1007.0064
                                                    Density    =         0.0168
 DV/DL  =         7.4992
 ------------------------------------------------------------------------------

      DV/DL, AVERAGES OVER       7 STEPS

 NSTEP =     3500   TIME(PS) =     256.000  TEMP(K) =     3.47  PRESS =     0.0
 Etot   =         0.0000  EKtot   =         0.0000  EPtot      =         0.0000
 BOND   =         0.0000  ANGLE   =         0.0000  DIHED      =         0.0000
 1-4 NB =         0.0000  1-4 EEL =       -36.4631  VDWAALS    =         0.0000
 EELEC  =        44.1975  EHBOND  =         0.0000  RESTRAINT  =         0.0000
 EKCMT  =         0.0000  VIRIAL  =         0.0000  VOLUME     =         0.0000
                                                    Density    =         0.0000
 ------------------------------------------------------------------------------
