-------------------------------------------------------
          Amber 20 PMEMD                              2020
          -------------------------------------------------------

  [-O]verwriting output

File Assignments:

 Here is the input file:

*******************************************************
*****************************       mdin
*******************************************************
Production runs charge annihilation
 &cntrl
  imin = 0,
  ntx = 5,
  irest = 1,
  ntpr = 1000,
  ntwr = 1000,
  ntwe = 0,
  ntxo = 1,
  ntwx = 2500,
  ioutfm = 1,
  iwrap = 1,
  ntf = 1,
  ntc = 2,
  cut = 9.0,
  ntt = 3,
  temp0 = 298.15,
  gamma_ln = 1.0,
  ig = -1,
  ntp = 1,
  barostat = 2,
  nstlim = 200000,
  dt = 0.004,
  nmropt = 1,
  pencut = -1,
  icfe = 1, clambda = 0.00922,
  timask1 = ':1', timask2 = ':2',
  ifsc=0, crgmask = ':2',
  ifmbar = 1,
  mbar_states = 12
  mbar_lambda =  0.00922, 0.04794, 0.11505, 0.20634, 0.31608, 0.43738, 0.56262,
 /
 &wt type = 'END' , /
DISANG=disang.rest
LISTOUT=POUT

Note: ig = -1. Setting random seed to   189629 based on wallclock time in
      microseconds.

--------------------------------------------------------------------------------
   1.  RESOURCE   USE:
--------------------------------------------------------------------------------

 getting new box info from bottom of inpcrd
 NATOM  =    5675 NTYPES =      11 NBONH =    5627 MBONA  =      34
 NTHETH =      52 MTHETA =      46 NPHIH =      82 MPHIA  =      70
 NHPARM =       0 NPARM  =       0 NNB   =    7766 NRES   =    1885
 NBONA  =      34 NTHETA =      46 NPHIA =      70 NUMBND =      18
 NUMANG =      25 NPTRA  =      11 NATYP =      16 NPHB   =       0
 IFBOX  =       1 NMXRS  =      29 IFCAP =       0 NEXTRA =       0
 NCOPY  =       0

     BOX TYPE: RECTILINEAR

--------------------------------------------------------------------------------
   2.  CONTROL  DATA  FOR  THE  RUN
--------------------------------------------------------------------------------

default_name

General flags:
     imin    =       0, nmropt  =       1

Nature and format of input:
     ntx     =       5, irest   =       1, ntrx    =       1

Nature and format of output:
     ntxo    =       1, ntpr    =    1000, ntrx    =       1, ntwr    =    1000
     iwrap   =       1, ntwx    =    2500, ntwv    =       0, ntwe    =       0
     ioutfm  =       1, ntwprt  =       0, idecomp =       0, rbornstat=      0

Potential function:
     ntf     =       1, ntb     =       2, igb     =       0, nsnb    =      25
     ipol    =       0, gbsa    =       0, iesp    =       0
     dielc   =   1.00000, cut     =   9.00000, intdiel =   1.00000

Frozen or restrained atoms:
     ibelly  =       0, ntr     =       0

Molecular dynamics:
     nstlim  =    200000, nscm    =      1000, nrespa  =         1
     t       =   0.00000, dt      =   0.00400, vlimit  =  -1.00000

Langevin dynamics temperature regulation:
     ig      =  189629
     temp0   = 298.15000, tempi   =   0.00000, gamma_ln=   1.00000

Pressure regulation:
     ntp     =       1
     pres0   =   1.00000, comp    =  44.60000, taup    =   1.00000
     Monte-Carlo Barostat:
     mcbarint  =     100

SHAKE:
     ntc     =       2, jfastw  =       0
     tol     =   0.00001

NMR refinement options:
     iscale  =       0, noeskp  =       1, ipnlty  =       1, mxsub   =       1
     scalm   = 100.00000, pencut  =  -1.00000, tausw   =   0.10000

Free energy options:
     icfe    =       1, ifsc    =       0, klambda =       1
     clambda =  0.0092, scalpha =  0.5000, scbeta  = 12.0000
     sceeorder =       2
     dynlmb =  0.0000 logdvdl =       0

FEP MBAR options:
     ifmbar  =       1,  bar_intervall =      100
     mbar_states =      12

Ewald parameters:
     verbose =       0, ew_type =       0, nbflag  =       1, use_pme =       1
     vdwmeth =       1, eedmeth =       1, netfrc  =       1
     Box X =   36.209   Box Y =   39.449   Box Z =   39.942
     Alpha =   90.000   Beta  =   90.000   Gamma =   90.000
     NFFT1 =   40       NFFT2 =   40       NFFT3 =   40
     Cutoff=    9.000   Tol   =0.100E-04
     Ewald Coefficient =  0.30768
     Interpolation order =    4
     TI Mask 1 :1; matches     29 atoms
     TI Mask 2 :2; matches     29 atoms
     TI region 1:    5646 atoms
     TI region 2:    5646 atoms
Removing charge of       0.1324 from atom      30
Removing charge of      -0.3482 from atom      31
Removing charge of       0.6867 from atom      32
Removing charge of      -0.6325 from atom      33
Removing charge of      -0.2038 from atom      34
Removing charge of       0.0953 from atom      35
Removing charge of      -0.3903 from atom      36
Removing charge of       0.3402 from atom      37
Removing charge of      -0.1179 from atom      38
Removing charge of      -0.1090 from atom      39
Removing charge of      -0.1345 from atom      40
Removing charge of      -0.1210 from atom      41
Removing charge of      -0.1345 from atom      42
Removing charge of      -0.1090 from atom      43
Removing charge of      -0.7500 from atom      44
Removing charge of       0.1891 from atom      45
Removing charge of       0.1660 from atom      46
Removing charge of       0.0607 from atom      47
Removing charge of       0.0607 from atom      48
Removing charge of       0.0607 from atom      49
Removing charge of       0.1440 from atom      50
Removing charge of       0.1360 from atom      51
Removing charge of       0.1340 from atom      52
Removing charge of       0.1360 from atom      53
Removing charge of       0.1440 from atom      54
Removing charge of       0.4328 from atom      55
Removing charge of       0.0440 from atom      56
Removing charge of       0.0440 from atom      57
Removing charge of       0.0440 from atom      58
Total charge of  -0.00000100 removed from      29 atoms

    MBAR - lambda values considered:
      12 total:  0.0092 0.0479 0.1150 0.2063 0.3161 0.4374 0.5626 0.6839 0.7937 0.8850 0.9521 0.9908
    Extra energies will be computed   2000 times.
     Checking for mismatched coordinates.

--------------------------------------------------------------------------------
   3.  ATOMIC COORDINATES AND VELOCITIES
--------------------------------------------------------------------------------

default_name
 begin time read from input coords =  1070.000 ps

           Begin reading energy term weight changes/NMR restraints
 WEIGHT CHANGES:
                         ** No weight changes given **

 RESTRAINTS:
 Requested file redirections:
  DISANG    = disang.rest
  LISTOUT   = POUT
 Restraints will be read from file: disang.rest
Here are comments from the DISANG input file:
# Anchor atoms  :58@CA  :79@CA  :105@CA  :1@C3  :1@C9  :1@C11  stage = fe  weigh

                       Number of restraints read =    17

                  Done reading weight changes/NMR restraints

 Number of triangulated 3-point waters found:     1867

     Sum of charges for TI region  1 =  -0.00000100
     Skip neutralizing charges...

     Sum of charges for TI region  2 =  -0.00000000
     Skip neutralizing charges...

--------------------------------------------------------------------------------
   4.  RESULTS
 NSTEP =     1000   TIME(PS) =    1074.000  TEMP(K) =   299.83  PRESS =     0.0
 Etot   =    -15874.2841  EKtot   =      3373.5517  EPtot      =    -19247.8358
 BOND   =        10.5013  ANGLE   =        16.2366  DIHED      =        14.3995
 1-4 NB =         9.7196  1-4 EEL =        38.4904  VDWAALS    =      2661.5986
 EELEC  =    -22005.6521  EHBOND  =         0.0000  RESTRAINT  =         6.8702
 EAMBER (non-restraint)  =    -19254.7060
 EKCMT  =         0.0000  VIRIAL  =         0.0000  VOLUME     =     56975.9039
                                                    Density    =         1.0002
 DV/DL  =         6.6561
 ------------------------------------------------------------------------------

      A V E R A G E S   O V E R     200 S T E P S

 NSTEP =   200000   TIME(PS) =    1870.000  TEMP(K) =   299.26  PRESS =     0.0
 Etot   =    -15856.1878  EKtot   =      3367.1577  EPtot      =    -19223.3455
 BOND   =         8.8699  ANGLE   =        13.8818  DIHED      =        10.4491
 1-4 NB =        10.3045  1-4 EEL =        35.9966  VDWAALS    =      2720.9322
 EELEC  =    -22029.6506  EHBOND  =         0.0000  RESTRAINT  =         5.8710
 EAMBER (non-restraint)  =    -19229.2165
 EKCMT  =         0.0000  VIRIAL  =         0.0000  VOLUME     =     57388.9022
                                                    Density    =         0.9931
 DV/DL  =         1.5423
 ------------------------------------------------------------------------------

      R M S  F L U C T U A T I O N S

 NSTEP =   200000   TIME(PS) =    1870.000  TEMP(K) =     3.93  PRESS =     0.0
 Etot   =        77.0207  EKtot   =        44.1656  EPtot      =        65.3011
 BOND   =         3.0206  ANGLE   =         2.8162  DIHED      =         1.8828
 1-4 NB =         0.9806  1-4 EEL =         1.2687  VDWAALS    =        64.5297
 EELEC  =        99.1876  EHBOND  =         0.0000  RESTRAINT  =         2.8266
 EAMBER (non-restraint)  =        62.4746
 EKCMT  =         0.0000  VIRIAL  =         0.0000  VOLUME     =       355.8706
                                                    Density    =         0.0061
 DV/DL  =         6.0282
 ------------------------------------------------------------------------------

      A V E R A G E S   O V E R     200 S T E P S

 NSTEP =   200000   TIME(PS) =    1870.000  TEMP(K) =   299.26  PRESS =     0.0
 Etot   =    -15856.1878  EKtot   =      3367.1577  EPtot      =    -19223.3455
 BOND   =         8.8699  ANGLE   =        13.8818  DIHED      =        10.4491
 1-4 NB =        10.3045  1-4 EEL =        35.9966  VDWAALS    =      2720.9322
 EELEC  =    -22029.6506  EHBOND  =         0.0000  RESTRAINT  =         5.8710
 EAMBER (non-restraint)  =    -19229.2165
 EKCMT  =         0.0000  VIRIAL  =         0.0000  VOLUME     =     57388.9022
                                                    Density    =         0.9931
 DV/DL  =         1.5423
 ------------------------------------------------------------------------------

      R M S  F L U C T U A T I O N S

 NSTEP =   200000   TIME(PS) =    1870.000  TEMP(K) =     3.93  PRESS =     0.0
 Etot   =        77.0207  EKtot   =        44.1656  EPtot      =        65.3011
 BOND   =         3.0206  ANGLE   =         2.8162  DIHED      =         1.8828
 1-4 NB =         0.9806  1-4 EEL =         1.2687  VDWAALS    =        64.5297
 EELEC  =        99.1876  EHBOND  =         0.0000  RESTRAINT  =         2.8266
 EAMBER (non-restraint)  =        62.4746
 EKCMT  =         0.0000  VIRIAL  =         0.0000  VOLUME     =       355.8706
                                                    Density    =         0.0061
 DV/DL  =         6.0282
 ------------------------------------------------------------------------------

      DV/DL, AVERAGES OVER     200 STEPS

 NSTEP =   200000   TIME(PS) =    1870.000  TEMP(K) =     3.93  PRESS =     0.0
 Etot   =         0.0000  EKtot   =         0.0000  EPtot      =         0.0000
 BOND   =         0.0000  ANGLE   =         0.0000  DIHED      =         0.0000
 1-4 NB =         0.0000  1-4 EEL =       -36.3316  VDWAALS    =         0.0000
 EELEC  =        43.7996  EHBOND  =         0.0000  RESTRAINT  =         0.0000
 EKCMT  =         0.0000  VIRIAL  =         0.0000  VOLUME     =         0.0000
                                                    Density    =         0.0000
 ------------------------------------------------------------------------------
