-------------------------------------------------------
          Amber 20 PMEMD                              2020
          -------------------------------------------------------

  [-O]verwriting output

File Assignments:

 Here is the input file:

*******************************************************
*****************************       mdin
*******************************************************
Production runs LJ decoupling
 &cntrl
  imin = 0,
  ntx = 5,
  irest = 1,
  ntpr = 1000,
  ntwr = 1000,
  ntwe = 0,
  ntxo = 1,
  ntwx = 2500,
  ioutfm = 1,
  iwrap = 1,
  ntf = 1,
  ntc = 2,
  cut = 9.0,
  ntt = 3,
  temp0 = 298.15,
  gamma_ln = 1.0,
  ig = -1,
  ntp = 1,
  barostat = 2,
  nstlim = 1000000,
  dt = 0.004,
  nmropt = 1,
  pencut = -1,
  icfe = 1, clambda = 0.00922, scalpha = 0.5, scbeta = 12.0,
  timask1 = ':1', timask2 = '',
  ifsc=1, scmask1=':1', scmask2='', crgmask = ':1',
  ifmbar = 1,
  mbar_states = 12
  mbar_lambda =  0.00922, 0.04794, 0.11505, 0.20634, 0.31608, 0.43738, 0.56262,
 /
 &wt type = 'END' , /
DISANG=disang.rest
LISTOUT=POUT

Note: ig = -1. Setting random seed to   433031 based on wallclock time in
      microseconds.

--------------------------------------------------------------------------------
   1.  RESOURCE   USE:
--------------------------------------------------------------------------------

 getting box info from netcdf restart file
 NATOM  =    5646 NTYPES =      11 NBONH =    5614 MBONA  =      17
 NTHETH =      26 MTHETA =      23 NPHIH =      41 MPHIA  =      35
 NHPARM =       0 NPARM  =       0 NNB   =    7625 NRES   =    1884
 NBONA  =      17 NTHETA =      23 NPHIA =      35 NUMBND =      18
 NUMANG =      25 NPTRA  =      11 NATYP =      16 NPHB   =       0
 IFBOX  =       1 NMXRS  =      29 IFCAP =       0 NEXTRA =       0
 NCOPY  =       0

     BOX TYPE: RECTILINEAR

--------------------------------------------------------------------------------
   2.  CONTROL  DATA  FOR  THE  RUN
--------------------------------------------------------------------------------

default_name

General flags:
     imin    =       0, nmropt  =       1

Nature and format of input:
     ntx     =       5, irest   =       1, ntrx    =       1

Nature and format of output:
     ntxo    =       1, ntpr    =    1000, ntrx    =       1, ntwr    =    1000
     iwrap   =       1, ntwx    =    2500, ntwv    =       0, ntwe    =       0
     ioutfm  =       1, ntwprt  =       0, idecomp =       0, rbornstat=      0

Potential function:
     ntf     =       1, ntb     =       2, igb     =       0, nsnb    =      25
     ipol    =       0, gbsa    =       0, iesp    =       0
     dielc   =   1.00000, cut     =   9.00000, intdiel =   1.00000

Frozen or restrained atoms:
     ibelly  =       0, ntr     =       0

Molecular dynamics:
     nstlim  =   1000000, nscm    =      1000, nrespa  =         1
     t       =   0.00000, dt      =   0.00400, vlimit  =  -1.00000

Langevin dynamics temperature regulation:
     ig      =  433031
     temp0   = 298.15000, tempi   =   0.00000, gamma_ln=   1.00000

Pressure regulation:
     ntp     =       1
     pres0   =   1.00000, comp    =  44.60000, taup    =   1.00000
     Monte-Carlo Barostat:
     mcbarint  =     100

SHAKE:
     ntc     =       2, jfastw  =       0
     tol     =   0.00001

NMR refinement options:
     iscale  =       0, noeskp  =       1, ipnlty  =       1, mxsub   =       1
     scalm   = 100.00000, pencut  =  -1.00000, tausw   =   0.10000

Free energy options:
     icfe    =       1, ifsc    =       1, klambda =       1
     clambda =  0.0092, scalpha =  0.5000, scbeta  = 12.0000
     sceeorder =       2
     dynlmb =  0.0000 logdvdl =       0

FEP MBAR options:
     ifmbar  =       1,  bar_intervall =      100
     mbar_states =      12

Ewald parameters:
     verbose =       0, ew_type =       0, nbflag  =       1, use_pme =       1
     vdwmeth =       1, eedmeth =       1, netfrc  =       1
     Box X =   36.452   Box Y =   39.715   Box Z =   40.211
     Alpha =   90.000   Beta  =   90.000   Gamma =   90.000
     NFFT1 =   40       NFFT2 =   40       NFFT3 =   48
     Cutoff=    9.000   Tol   =0.100E-04
     Ewald Coefficient =  0.30768
     Interpolation order =    4
     TI Mask 1 :1; matches     29 atoms
     TI Mask 2  matches      0 atoms
     TI region 1:    5646 atoms
     TI region 2:    5617 atoms
     SC Mask 1 :1; matches     29 atoms
Removing charge of       0.1324 from atom       1
Removing charge of      -0.3482 from atom       2
Removing charge of       0.6867 from atom       3
Removing charge of      -0.6325 from atom       4
Removing charge of      -0.2038 from atom       5
Removing charge of       0.0953 from atom       6
Removing charge of      -0.3903 from atom       7
Removing charge of       0.3402 from atom       8
Removing charge of      -0.1179 from atom       9
Removing charge of      -0.1090 from atom      10
Removing charge of      -0.1345 from atom      11
Removing charge of      -0.1210 from atom      12
Removing charge of      -0.1345 from atom      13
Removing charge of      -0.1090 from atom      14
Removing charge of      -0.7500 from atom      15
Removing charge of       0.1891 from atom      16
Removing charge of       0.1660 from atom      17
Removing charge of       0.0607 from atom      18
Removing charge of       0.0607 from atom      19
Removing charge of       0.0607 from atom      20
Removing charge of       0.1440 from atom      21
Removing charge of       0.1360 from atom      22
Removing charge of       0.1340 from atom      23
Removing charge of       0.1360 from atom      24
Removing charge of       0.1440 from atom      25
Removing charge of       0.4328 from atom      26
Removing charge of       0.0440 from atom      27
Removing charge of       0.0440 from atom      28
Removing charge of       0.0440 from atom      29
Total charge of  -0.00000100 removed from      29 atoms
    No charge on TI atoms. Skipping extra recip sum.

    MBAR - lambda values considered:
      12 total:  0.0092 0.0479 0.1150 0.2063 0.3161 0.4374 0.5626 0.6839 0.7937 0.8850 0.9521 0.9908
    Extra energies will be computed  10000 times.

--------------------------------------------------------------------------------
   3.  ATOMIC COORDINATES AND VELOCITIES
--------------------------------------------------------------------------------

default_name
 begin time read from input coords =   172.000 ps

           Begin reading energy term weight changes/NMR restraints
 WEIGHT CHANGES:
                         ** No weight changes given **

 RESTRAINTS:
 Requested file redirections:
  DISANG    = disang.rest
  LISTOUT   = POUT
 Restraints will be read from file: disang.rest
Here are comments from the DISANG input file:
# Anchor atoms  :58@CA  :79@CA  :105@CA  :1@C3  :1@C9  :1@C11  stage = fe  weigh

                       Number of restraints read =    17

                  Done reading weight changes/NMR restraints

     Molecule     1 is completely softcore and skipped for C.O.M..
 Number of triangulated 3-point waters found:     1867
 Number of shake restraints removed in TI region  1 :        0
 Number of shake restraints removed in TI region  2 :        0

     Sum of charges for TI region  1 =  -0.00000000
     Skip neutralizing charges...

     Sum of charges for TI region  2 =  -0.00000000
     Skip neutralizing charges...

--------------------------------------------------------------------------------
   4.  RESULTS
 NSTEP =     1000   TIME(PS) =     176.000  TEMP(K) =   300.19  PRESS =     0.0
 Etot   =    -15803.9876  EKtot   =      3377.5784  EPtot      =    -19181.5660
 BOND   =         0.0000  ANGLE   =         0.0000  DIHED      =         0.0000
 1-4 NB =         0.0000  1-4 EEL =         0.0000  VDWAALS    =      2760.0010
 EELEC  =    -21944.4813  EHBOND  =         0.0000  RESTRAINT  =         2.9143
 EAMBER (non-restraint)  =    -19184.4803
 EKCMT  =         0.0000  VIRIAL  =         0.0000  VOLUME     =     57788.0787
                                                    Density    =         0.9862
 DV/DL  =        20.0311
 ------------------------------------------------------------------------------

      A V E R A G E S   O V E R    1000 S T E P S

 NSTEP =  1000000   TIME(PS) =    4172.000  TEMP(K) =   298.46  PRESS =     0.0
 Etot   =    -15925.3386  EKtot   =      3358.1293  EPtot      =    -19283.4679
 BOND   =         0.0000  ANGLE   =         0.0000  DIHED      =         0.0000
 1-4 NB =         0.0000  1-4 EEL =         0.0000  VDWAALS    =      2726.3974
 EELEC  =    -22014.2415  EHBOND  =         0.0000  RESTRAINT  =         4.3762
 EAMBER (non-restraint)  =    -19287.8441
 EKCMT  =         0.0000  VIRIAL  =         0.0000  VOLUME     =     57333.1824
                                                    Density    =         0.9940
 DV/DL  =        14.6782
 ------------------------------------------------------------------------------

      R M S  F L U C T U A T I O N S

 NSTEP =  1000000   TIME(PS) =    4172.000  TEMP(K) =     3.92  PRESS =     0.0
 Etot   =        81.1824  EKtot   =        44.0559  EPtot      =        67.5492
 BOND   =         0.0000  ANGLE   =         0.0000  DIHED      =         0.0000
 1-4 NB =         0.0000  1-4 EEL =         0.0000  VDWAALS    =        66.2536
 EELEC  =       105.9178  EHBOND  =         0.0000  RESTRAINT  =         1.6988
 EAMBER (non-restraint)  =        65.8504
 EKCMT  =         0.0000  VIRIAL  =         0.0000  VOLUME     =       362.9381
                                                    Density    =         0.0063
 DV/DL  =         5.9625
 ------------------------------------------------------------------------------

      A V E R A G E S   O V E R    1000 S T E P S

 NSTEP =  1000000   TIME(PS) =    4172.000  TEMP(K) =   298.47  PRESS =     0.0
 Etot   =    -15947.2002  EKtot   =      3336.2676  EPtot      =    -19283.4679
 BOND   =         0.0000  ANGLE   =         0.0000  DIHED      =         0.0000
 1-4 NB =         0.0000  1-4 EEL =         0.0000  VDWAALS    =      2726.3974
 EELEC  =    -22014.2415  EHBOND  =         0.0000  RESTRAINT  =         4.3762
 EAMBER (non-restraint)  =    -19287.8441
 EKCMT  =         0.0000  VIRIAL  =         0.0000  VOLUME     =     57333.1824
                                                    Density    =         0.9878
 DV/DL  =        14.6782
 ------------------------------------------------------------------------------

      R M S  F L U C T U A T I O N S

 NSTEP =  1000000   TIME(PS) =    4172.000  TEMP(K) =     3.93  PRESS =     0.0
 Etot   =        81.0984  EKtot   =        43.9501  EPtot      =        67.5492
 BOND   =         0.0000  ANGLE   =         0.0000  DIHED      =         0.0000
 1-4 NB =         0.0000  1-4 EEL =         0.0000  VDWAALS    =        66.2536
 EELEC  =       105.9178  EHBOND  =         0.0000  RESTRAINT  =         1.6988
 EAMBER (non-restraint)  =        65.8504
 EKCMT  =         0.0000  VIRIAL  =         0.0000  VOLUME     =       362.9381
                                                    Density    =         0.0063
 DV/DL  =         5.9625
 ------------------------------------------------------------------------------

      DV/DL, AVERAGES OVER    1000 STEPS

 NSTEP =  1000000   TIME(PS) =    4172.000  TEMP(K) =     3.93  PRESS =     0.0
 Etot   =         0.0000  EKtot   =         0.0000  EPtot      =         0.0000
 BOND   =         0.0000  ANGLE   =         0.0000  DIHED      =         0.0000
 1-4 NB =         0.0000  1-4 EEL =         0.0000  VDWAALS    =        23.7073
 EELEC  =         0.0000  EHBOND  =         0.0000  RESTRAINT  =         0.0000
 EKCMT  =         0.0000  VIRIAL  =         0.0000  VOLUME     =         0.0000
                                                    Density    =         0.0000
 ------------------------------------------------------------------------------
