-------------------------------------------------------
          Amber 20 PMEMD                              2020
          -------------------------------------------------------

  [-O]verwriting output

File Assignments:

 Here is the input file:

*******************************************************
*****************************       eqnpt.in
*******************************************************
Equilibrate, NPT.
 &cntrl
  imin = 0,
  ntx = 5,
  irest = 1,
  ntpr = 500,
  ntwr = 500,
  ntwx = 500,
  ioutfm = 1,
  iwrap = 1,
  ntf = 2,
  ntc = 2,
  cut = 9.0,
  ntt = 3,
  temp0 = 298.15,
  gamma_ln = 1.0,
  ig = -1,
  ntp = 1,
  barostat = 2,
  nstlim = 3500,
  dt = 0.004,
  nmropt = 1,
  pencut = -1,
 /
 &wt type = 'END', /
DISANG=disang.rest
LISTOUT=POUT

Note: ig = -1. Setting random seed to   522033 based on wallclock time in
      microseconds.

--------------------------------------------------------------------------------
   1.  RESOURCE   USE:
--------------------------------------------------------------------------------

 getting box info from netcdf restart file
 NATOM  =    5646 NTYPES =      11 NBONH =    5614 MBONA  =      17
 NTHETH =      26 MTHETA =      23 NPHIH =      41 MPHIA  =      35
 NHPARM =       0 NPARM  =       0 NNB   =    7625 NRES   =    1884
 NBONA  =      17 NTHETA =      23 NPHIA =      35 NUMBND =      18
 NUMANG =      25 NPTRA  =      11 NATYP =      16 NPHB   =       0
 IFBOX  =       1 NMXRS  =      29 IFCAP =       0 NEXTRA =       0
 NCOPY  =       0

     BOX TYPE: RECTILINEAR

--------------------------------------------------------------------------------
   2.  CONTROL  DATA  FOR  THE  RUN
--------------------------------------------------------------------------------

default_name

General flags:
     imin    =       0, nmropt  =       1

Nature and format of input:
     ntx     =       5, irest   =       1, ntrx    =       1

Nature and format of output:
     ntxo    =       2, ntpr    =     500, ntrx    =       1, ntwr    =     500
     iwrap   =       1, ntwx    =     500, ntwv    =       0, ntwe    =       0
     ioutfm  =       1, ntwprt  =       0, idecomp =       0, rbornstat=      0

Potential function:
     ntf     =       2, ntb     =       2, igb     =       0, nsnb    =      25
     ipol    =       0, gbsa    =       0, iesp    =       0
     dielc   =   1.00000, cut     =   9.00000, intdiel =   1.00000

Frozen or restrained atoms:
     ibelly  =       0, ntr     =       0

Molecular dynamics:
     nstlim  =      3500, nscm    =      1000, nrespa  =         1
     t       =   0.00000, dt      =   0.00400, vlimit  =  -1.00000

Langevin dynamics temperature regulation:
     ig      =  522033
     temp0   = 298.15000, tempi   =   0.00000, gamma_ln=   1.00000

Pressure regulation:
     ntp     =       1
     pres0   =   1.00000, comp    =  44.60000, taup    =   1.00000
     Monte-Carlo Barostat:
     mcbarint  =     100

SHAKE:
     ntc     =       2, jfastw  =       0
     tol     =   0.00001

NMR refinement options:
     iscale  =       0, noeskp  =       1, ipnlty  =       1, mxsub   =       1
     scalm   = 100.00000, pencut  =  -1.00000, tausw   =   0.10000

Ewald parameters:
     verbose =       0, ew_type =       0, nbflag  =       1, use_pme =       1
     vdwmeth =       1, eedmeth =       1, netfrc  =       1
     Box X =   39.088   Box Y =   42.587   Box Z =   43.119
     Alpha =   90.000   Beta  =   90.000   Gamma =   90.000
     NFFT1 =   40       NFFT2 =   48       NFFT3 =   48
     Cutoff=    9.000   Tol   =0.100E-04
     Ewald Coefficient =  0.30768
     Interpolation order =    4

--------------------------------------------------------------------------------
   3.  ATOMIC COORDINATES AND VELOCITIES
--------------------------------------------------------------------------------

default_name
 begin time read from input coords =   116.000 ps

           Begin reading energy term weight changes/NMR restraints
 WEIGHT CHANGES:
                         ** No weight changes given **

 RESTRAINTS:
 Requested file redirections:
  DISANG    = disang.rest
  LISTOUT   = POUT
 Restraints will be read from file: disang.rest
Here are comments from the DISANG input file:
# Anchor atoms  :58@CA  :79@CA  :105@CA  :1@C3  :1@C9  :1@C11  stage = fe  weigh

                       Number of restraints read =    17

                  Done reading weight changes/NMR restraints

 Number of triangulated 3-point waters found:     1867

     Sum of charges from parm topology file =  -0.00000100
     Forcing neutrality...

--------------------------------------------------------------------------------
   4.  RESULTS
 NSTEP =      500   TIME(PS) =     118.000  TEMP(K) =   298.36  PRESS =     0.0
 Etot   =    -15413.6986  EKtot   =      3356.9773  EPtot      =    -18770.6758
 BOND   =        15.6540  ANGLE   =         9.5793  DIHED      =         8.8667
 1-4 NB =        10.3523  1-4 EEL =        36.2857  VDWAALS    =      2727.7201
 EELEC  =    -21581.9369  EHBOND  =         0.0000  RESTRAINT  =         2.8030
 EAMBER (non-restraint)  =    -18773.4789
 EKCMT  =         0.0000  VIRIAL  =         0.0000  VOLUME     =     71450.7919
                                                    Density    =         0.7976
 ------------------------------------------------------------------------------

      A V E R A G E S   O V E R       7 S T E P S

 NSTEP =     3500   TIME(PS) =     130.000  TEMP(K) =   298.81  PRESS =     0.0
 Etot   =    -15414.4709  EKtot   =      3362.0772  EPtot      =    -18776.5482
 BOND   =         9.8987  ANGLE   =        13.0757  DIHED      =         9.2388
 1-4 NB =        10.2311  1-4 EEL =        35.9786  VDWAALS    =      2714.6956
 EELEC  =    -21574.0017  EHBOND  =         0.0000  RESTRAINT  =         4.3351
 EAMBER (non-restraint)  =    -18780.8832
 EKCMT  =         0.0000  VIRIAL  =         0.0000  VOLUME     =     68775.2271
                                                    Density    =         0.8291
 ------------------------------------------------------------------------------

      R M S  F L U C T U A T I O N S

 NSTEP =     3500   TIME(PS) =     130.000  TEMP(K) =     3.24  PRESS =     0.0
 Etot   =        76.9038  EKtot   =        36.4978  EPtot      =        71.8906
 BOND   =         2.6548  ANGLE   =         3.1399  DIHED      =         0.8857
 1-4 NB =         0.8107  1-4 EEL =         0.9306  VDWAALS    =        76.9160
 EELEC  =        41.8006  EHBOND  =         0.0000  RESTRAINT  =         1.3578
 EAMBER (non-restraint)  =        70.5328
 EKCMT  =         0.0000  VIRIAL  =         0.0000  VOLUME     =      1653.7922
                                                    Density    =         0.0198
 ------------------------------------------------------------------------------
