-------------------------------------------------------
          Amber 20 PMEMD                              2020
          -------------------------------------------------------

  [-O]verwriting output

File Assignments:

 Here is the input file:

*******************************************************
*****************************       eqnpt.in
*******************************************************
Equilibrate, NPT.
 &cntrl
  imin = 0,
  ntx = 5,
  irest = 1,
  ntpr = 500,
  ntwr = 500,
  ntwx = 500,
  ioutfm = 1,
  iwrap = 1,
  ntf = 2,
  ntc = 2,
  cut = 9.0,
  ntt = 3,
  temp0 = 298.15,
  gamma_ln = 1.0,
  ig = -1,
  ntp = 1,
  barostat = 2,
  nstlim = 3500,
  dt = 0.004,
  nmropt = 1,
  pencut = -1,
 /
 &wt type = 'END', /
DISANG=disang.rest
LISTOUT=POUT

Note: ig = -1. Setting random seed to   972682 based on wallclock time in
      microseconds.

--------------------------------------------------------------------------------
   1.  RESOURCE   USE:
--------------------------------------------------------------------------------

 getting box info from netcdf restart file
 NATOM  =    5646 NTYPES =      11 NBONH =    5614 MBONA  =      17
 NTHETH =      26 MTHETA =      23 NPHIH =      41 MPHIA  =      35
 NHPARM =       0 NPARM  =       0 NNB   =    7625 NRES   =    1884
 NBONA  =      17 NTHETA =      23 NPHIA =      35 NUMBND =      18
 NUMANG =      25 NPTRA  =      11 NATYP =      16 NPHB   =       0
 IFBOX  =       1 NMXRS  =      29 IFCAP =       0 NEXTRA =       0
 NCOPY  =       0

     BOX TYPE: RECTILINEAR

--------------------------------------------------------------------------------
   2.  CONTROL  DATA  FOR  THE  RUN
--------------------------------------------------------------------------------

default_name

General flags:
     imin    =       0, nmropt  =       1

Nature and format of input:
     ntx     =       5, irest   =       1, ntrx    =       1

Nature and format of output:
     ntxo    =       2, ntpr    =     500, ntrx    =       1, ntwr    =     500
     iwrap   =       1, ntwx    =     500, ntwv    =       0, ntwe    =       0
     ioutfm  =       1, ntwprt  =       0, idecomp =       0, rbornstat=      0

Potential function:
     ntf     =       2, ntb     =       2, igb     =       0, nsnb    =      25
     ipol    =       0, gbsa    =       0, iesp    =       0
     dielc   =   1.00000, cut     =   9.00000, intdiel =   1.00000

Frozen or restrained atoms:
     ibelly  =       0, ntr     =       0

Molecular dynamics:
     nstlim  =      3500, nscm    =      1000, nrespa  =         1
     t       =   0.00000, dt      =   0.00400, vlimit  =  -1.00000

Langevin dynamics temperature regulation:
     ig      =  972682
     temp0   = 298.15000, tempi   =   0.00000, gamma_ln=   1.00000

Pressure regulation:
     ntp     =       1
     pres0   =   1.00000, comp    =  44.60000, taup    =   1.00000
     Monte-Carlo Barostat:
     mcbarint  =     100

SHAKE:
     ntc     =       2, jfastw  =       0
     tol     =   0.00001

NMR refinement options:
     iscale  =       0, noeskp  =       1, ipnlty  =       1, mxsub   =       1
     scalm   = 100.00000, pencut  =  -1.00000, tausw   =   0.10000

Ewald parameters:
     verbose =       0, ew_type =       0, nbflag  =       1, use_pme =       1
     vdwmeth =       1, eedmeth =       1, netfrc  =       1
     Box X =   38.152   Box Y =   41.567   Box Z =   42.086
     Alpha =   90.000   Beta  =   90.000   Gamma =   90.000
     NFFT1 =   40       NFFT2 =   48       NFFT3 =   48
     Cutoff=    9.000   Tol   =0.100E-04
     Ewald Coefficient =  0.30768
     Interpolation order =    4

--------------------------------------------------------------------------------
   3.  ATOMIC COORDINATES AND VELOCITIES
--------------------------------------------------------------------------------

default_name
 begin time read from input coords =   130.000 ps

           Begin reading energy term weight changes/NMR restraints
 WEIGHT CHANGES:
                         ** No weight changes given **

 RESTRAINTS:
 Requested file redirections:
  DISANG    = disang.rest
  LISTOUT   = POUT
 Restraints will be read from file: disang.rest
Here are comments from the DISANG input file:
# Anchor atoms  :58@CA  :79@CA  :105@CA  :1@C3  :1@C9  :1@C11  stage = fe  weigh

                       Number of restraints read =    17

                  Done reading weight changes/NMR restraints

 Number of triangulated 3-point waters found:     1867

     Sum of charges from parm topology file =  -0.00000100
     Forcing neutrality...

--------------------------------------------------------------------------------
   4.  RESULTS
 NSTEP =      500   TIME(PS) =     132.000  TEMP(K) =   304.37  PRESS =     0.0
 Etot   =    -15491.9204  EKtot   =      3424.5840  EPtot      =    -18916.5043
 BOND   =         6.9925  ANGLE   =        17.0816  DIHED      =        10.6636
 1-4 NB =        10.4673  1-4 EEL =        36.2335  VDWAALS    =      2619.5279
 EELEC  =    -21619.7032  EHBOND  =         0.0000  RESTRAINT  =         2.2326
 EAMBER (non-restraint)  =    -18918.7369
 EKCMT  =         0.0000  VIRIAL  =         0.0000  VOLUME     =     66853.5894
                                                    Density    =         0.8524
 ------------------------------------------------------------------------------

      A V E R A G E S   O V E R       7 S T E P S

 NSTEP =     3500   TIME(PS) =     144.000  TEMP(K) =   300.46  PRESS =     0.0
 Etot   =    -15538.4805  EKtot   =      3380.6121  EPtot      =    -18919.0926
 BOND   =         8.0103  ANGLE   =        14.9579  DIHED      =        10.6359
 1-4 NB =         9.8487  1-4 EEL =        34.3445  VDWAALS    =      2704.0442
 EELEC  =    -21705.2420  EHBOND  =         0.0000  RESTRAINT  =         4.3079
 EAMBER (non-restraint)  =    -18923.4005
 EKCMT  =         0.0000  VIRIAL  =         0.0000  VOLUME     =     65322.5797
                                                    Density    =         0.8728
 ------------------------------------------------------------------------------

      R M S  F L U C T U A T I O N S

 NSTEP =     3500   TIME(PS) =     144.000  TEMP(K) =     3.61  PRESS =     0.0
 Etot   =        26.1181  EKtot   =        40.6471  EPtot      =        48.4307
 BOND   =         2.7555  ANGLE   =         3.9290  DIHED      =         2.3921
 1-4 NB =         0.5801  1-4 EEL =         1.9627  VDWAALS    =       102.1510
 EELEC  =       127.7322  EHBOND  =         0.0000  RESTRAINT  =         1.2757
 EAMBER (non-restraint)  =        47.1551
 EKCMT  =         0.0000  VIRIAL  =         0.0000  VOLUME     =      1308.0207
                                                    Density    =         0.0176
 ------------------------------------------------------------------------------
