-------------------------------------------------------
          Amber 20 PMEMD                              2020
          -------------------------------------------------------

  [-O]verwriting output

File Assignments:

 Here is the input file:

*******************************************************
*****************************       eqnpt.in
*******************************************************
Equilibrate, NPT.
 &cntrl
  imin = 0,
  ntx = 5,
  irest = 1,
  ntpr = 500,
  ntwr = 500,
  ntwx = 500,
  ioutfm = 1,
  iwrap = 1,
  ntf = 2,
  ntc = 2,
  cut = 9.0,
  ntt = 3,
  temp0 = 298.15,
  gamma_ln = 1.0,
  ig = -1,
  ntp = 1,
  barostat = 2,
  nstlim = 3500,
  dt = 0.004,
  ntr = 1,
  restraint_wt = 50.0,
  restraintmask = ':1-3',
  nmropt = 1,
  pencut = -1,
  icfe = 1, clambda = 0.00922,
  timask1 = ':113', timask2 = ':114',
  ifsc=0, crgmask = ':114',
 /
 &wt type = 'END', /
DISANG=disang.rest
LISTOUT=POUT

Note: ig = -1. Setting random seed to   464061 based on wallclock time in
      microseconds.

--------------------------------------------------------------------------------
   1.  RESOURCE   USE:
--------------------------------------------------------------------------------

 getting box info from netcdf restart file
 NATOM  =   40895 NTYPES =      18 NBONH =   39903 MBONA  =     950
 NTHETH =    2062 MTHETA =    1275 NPHIH =    4031 MPHIA  =    3894
 NHPARM =       0 NPARM  =       0 NNB   =   62108 NRES   =   13178
 NBONA  =     950 NTHETA =    1275 NPHIA =    3894 NUMBND =      87
 NUMANG =     186 NPTRA  =     207 NATYP =      51 NPHB   =       1
 IFBOX  =       1 NMXRS  =      29 IFCAP =       0 NEXTRA =       0
 NCOPY  =       0

     BOX TYPE: RECTILINEAR

--------------------------------------------------------------------------------
   2.  CONTROL  DATA  FOR  THE  RUN
--------------------------------------------------------------------------------

default_name

General flags:
     imin    =       0, nmropt  =       1

Nature and format of input:
     ntx     =       5, irest   =       1, ntrx    =       1

Nature and format of output:
     ntxo    =       2, ntpr    =     500, ntrx    =       1, ntwr    =     500
     iwrap   =       1, ntwx    =     500, ntwv    =       0, ntwe    =       0
     ioutfm  =       1, ntwprt  =       0, idecomp =       0, rbornstat=      0

Potential function:
     ntf     =       2, ntb     =       2, igb     =       0, nsnb    =      25
     ipol    =       0, gbsa    =       0, iesp    =       0
     dielc   =   1.00000, cut     =   9.00000, intdiel =   1.00000

Frozen or restrained atoms:
     ibelly  =       0, ntr     =       1
     restraint_wt =  50.00000

Molecular dynamics:
     nstlim  =      3500, nscm    =         0, nrespa  =         1
     t       =   0.00000, dt      =   0.00400, vlimit  =  -1.00000

Langevin dynamics temperature regulation:
     ig      =  464061
     temp0   = 298.15000, tempi   =   0.00000, gamma_ln=   1.00000

Pressure regulation:
     ntp     =       1
     pres0   =   1.00000, comp    =  44.60000, taup    =   1.00000
     Monte-Carlo Barostat:
     mcbarint  =     100

SHAKE:
     ntc     =       2, jfastw  =       0
     tol     =   0.00001

NMR refinement options:
     iscale  =       0, noeskp  =       1, ipnlty  =       1, mxsub   =       1
     scalm   = 100.00000, pencut  =  -1.00000, tausw   =   0.10000

Free energy options:
     icfe    =       1, ifsc    =       0, klambda =       1
     clambda =  0.0092, scalpha =  0.5000, scbeta  = 12.0000
     sceeorder =       2
     dynlmb =  0.0000 logdvdl =       0

Ewald parameters:
     verbose =       0, ew_type =       0, nbflag  =       1, use_pme =       1
     vdwmeth =       1, eedmeth =       1, netfrc  =       1
     Box X =   65.405   Box Y =   60.888   Box Z =  116.581
     Alpha =   90.000   Beta  =   90.000   Gamma =   90.000
     NFFT1 =   64       NFFT2 =   64       NFFT3 =  128
     Cutoff=    9.000   Tol   =0.100E-04
     Ewald Coefficient =  0.30768
     Interpolation order =    4

    LOADING THE CONSTRAINED ATOMS AS GROUPS

   5.  REFERENCE ATOM COORDINATES

  default_name
     Mask :1-3; matches     3 atoms
     TI Mask 1 :113; matches     29 atoms
     TI Mask 2 :114; matches     29 atoms
     TI region 1:   40866 atoms
     TI region 2:   40866 atoms
Removing charge of       0.1324 from atom    1803
Removing charge of      -0.3482 from atom    1804
Removing charge of       0.6867 from atom    1805
Removing charge of      -0.6325 from atom    1806
Removing charge of      -0.2038 from atom    1807
Removing charge of       0.0953 from atom    1808
Removing charge of      -0.3903 from atom    1809
Removing charge of       0.3402 from atom    1810
Removing charge of      -0.1179 from atom    1811
Removing charge of      -0.1090 from atom    1812
Removing charge of      -0.1345 from atom    1813
Removing charge of      -0.1210 from atom    1814
Removing charge of      -0.1345 from atom    1815
Removing charge of      -0.1090 from atom    1816
Removing charge of      -0.7500 from atom    1817
Removing charge of       0.1891 from atom    1818
Removing charge of       0.1660 from atom    1819
Removing charge of       0.0607 from atom    1820
Removing charge of       0.0607 from atom    1821
Removing charge of       0.0607 from atom    1822
Removing charge of       0.1440 from atom    1823
Removing charge of       0.1360 from atom    1824
Removing charge of       0.1340 from atom    1825
Removing charge of       0.1360 from atom    1826
Removing charge of       0.1440 from atom    1827
Removing charge of       0.4328 from atom    1828
Removing charge of       0.0440 from atom    1829
Removing charge of       0.0440 from atom    1830
Removing charge of       0.0440 from atom    1831
Total charge of  -0.00000100 removed from      29 atoms
     Checking for mismatched coordinates.

--------------------------------------------------------------------------------
   3.  ATOMIC COORDINATES AND VELOCITIES
--------------------------------------------------------------------------------

default_name
 begin time read from input coords =   228.000 ps

           Begin reading energy term weight changes/NMR restraints
 WEIGHT CHANGES:
                         ** No weight changes given **

 RESTRAINTS:
 Requested file redirections:
  DISANG    = disang.rest
  LISTOUT   = POUT
 Restraints will be read from file: disang.rest
Here are comments from the DISANG input file:
# Anchor atoms  :58@CA  :79@CA  :105@CA  :113@C3  :113@C9  :113@C11  stage = pre

                       Number of restraints read =    54

                  Done reading weight changes/NMR restraints

 Number of triangulated 3-point waters found:    13000

     Sum of charges for TI region  1 =  -0.00000106
     Skip neutralizing charges...

     Sum of charges for TI region  2 =  -0.00000007
     Skip neutralizing charges...

--------------------------------------------------------------------------------
   4.  RESULTS
 NSTEP =      500   TIME(PS) =     230.000  TEMP(K) =   301.03  PRESS =     0.0
 Etot   =   -105859.8504  EKtot   =     24737.8430  EPtot      =   -130597.6935
 BOND   =       456.2798  ANGLE   =       994.1626  DIHED      =      1376.2824
 1-4 NB =       425.6671  1-4 EEL =      5410.2955  VDWAALS    =     17299.2032
 EELEC  =   -156585.2319  EHBOND  =         0.0000  RESTRAINT  =        25.6479
 EAMBER (non-restraint)  =   -130623.3414
 EKCMT  =         0.0000  VIRIAL  =         0.0000  VOLUME     =    464267.1758
                                                    Density    =         0.8931
 DV/DL  =       -14.6290
 ------------------------------------------------------------------------------

      A V E R A G E S   O V E R       7 S T E P S

 NSTEP =     3500   TIME(PS) =     242.000  TEMP(K) =   299.28  PRESS =     0.0
 Etot   =   -106221.8197  EKtot   =     24593.9732  EPtot      =   -130815.7929
 BOND   =       425.1213  ANGLE   =      1015.7251  DIHED      =      1373.6873
 1-4 NB =       421.7916  1-4 EEL =      5449.8251  VDWAALS    =     17610.9079
 EELEC  =   -157130.4627  EHBOND  =         0.0000  RESTRAINT  =        17.6114
 EAMBER (non-restraint)  =   -130833.4044
 EKCMT  =         0.0000  VIRIAL  =         0.0000  VOLUME     =    458198.4277
                                                    Density    =         0.9051
 DV/DL  =       -13.5223
 ------------------------------------------------------------------------------

      R M S  F L U C T U A T I O N S

 NSTEP =     3500   TIME(PS) =     242.000  TEMP(K) =     1.93  PRESS =     0.0
 Etot   =       327.5806  EKtot   =       158.6809  EPtot      =       231.9252
 BOND   =        28.5026  ANGLE   =        17.3994  DIHED      =        15.3905
 1-4 NB =         8.5940  1-4 EEL =        33.1108  VDWAALS    =       310.2072
 EELEC  =       410.3567  EHBOND  =         0.0000  RESTRAINT  =         3.6083
 EAMBER (non-restraint)  =       228.3169
 EKCMT  =         0.0000  VIRIAL  =         0.0000  VOLUME     =      4894.8784
                                                    Density    =         0.0097
 DV/DL  =         2.9215
 ------------------------------------------------------------------------------

      A V E R A G E S   O V E R       7 S T E P S

 NSTEP =     3500   TIME(PS) =     242.000  TEMP(K) =   299.28  PRESS =     0.0
 Etot   =   -106221.8197  EKtot   =     24593.9732  EPtot      =   -130815.7929
 BOND   =       425.1213  ANGLE   =      1015.7251  DIHED      =      1373.6873
 1-4 NB =       421.7916  1-4 EEL =      5449.8251  VDWAALS    =     17610.9079
 EELEC  =   -157130.4627  EHBOND  =         0.0000  RESTRAINT  =        17.6114
 EAMBER (non-restraint)  =   -130833.4044
 EKCMT  =         0.0000  VIRIAL  =         0.0000  VOLUME     =    458198.4277
                                                    Density    =         0.9051
 DV/DL  =       -13.5223
 ------------------------------------------------------------------------------

      R M S  F L U C T U A T I O N S

 NSTEP =     3500   TIME(PS) =     242.000  TEMP(K) =     1.93  PRESS =     0.0
 Etot   =       327.5806  EKtot   =       158.6809  EPtot      =       231.9252
 BOND   =        28.5026  ANGLE   =        17.3994  DIHED      =        15.3905
 1-4 NB =         8.5940  1-4 EEL =        33.1108  VDWAALS    =       310.2072
 EELEC  =       410.3567  EHBOND  =         0.0000  RESTRAINT  =         3.6083
 EAMBER (non-restraint)  =       228.3169
 EKCMT  =         0.0000  VIRIAL  =         0.0000  VOLUME     =      4894.8784
                                                    Density    =         0.0097
 DV/DL  =         2.9215
 ------------------------------------------------------------------------------

      DV/DL, AVERAGES OVER       7 STEPS

 NSTEP =     3500   TIME(PS) =     242.000  TEMP(K) =     1.93  PRESS =     0.0
 Etot   =         0.0000  EKtot   =         0.0000  EPtot      =         0.0000
 BOND   =         0.0000  ANGLE   =         0.0000  DIHED      =         0.0000
 1-4 NB =         0.0000  1-4 EEL =       -35.9458  VDWAALS    =         0.0000
 EELEC  =        30.0101  EHBOND  =         0.0000  RESTRAINT  =         0.0000
 EKCMT  =         0.0000  VIRIAL  =         0.0000  VOLUME     =         0.0000
                                                    Density    =         0.0000
 ------------------------------------------------------------------------------
