-------------------------------------------------------
          Amber 20 PMEMD                              2020
          -------------------------------------------------------

  [-O]verwriting output

File Assignments:

 Here is the input file:

*******************************************************
*****************************       mdin
*******************************************************
Production runs charge annihilation
 &cntrl
  imin = 0,
  ntx = 5,
  irest = 1,
  ntpr = 1000,
  ntwr = 1000,
  ntwe = 0,
  ntxo = 1,
  ntwx = 2500,
  ntwprt = 1831,
  ioutfm = 1,
  iwrap = 1,
  ntf = 1,
  ntc = 2,
  cut = 9.0,
  ntt = 3,
  temp0 = 298.15,
  gamma_ln = 1.0,
  ig = -1,
  ntp = 1,
  barostat = 2,
  nstlim = 200000,
  dt = 0.004,
  ntr = 1,
  restraint_wt = 50.0,
  restraintmask = ':1-3',
  nmropt = 1,
  pencut = -1,
  icfe = 1, clambda = 0.00922,
  timask1 = ':113', timask2 = ':114',
  ifsc=0, crgmask = ':114',
  ifmbar = 1,
  mbar_states = 12
  mbar_lambda =  0.00922, 0.04794, 0.11505, 0.20634, 0.31608, 0.43738, 0.56262,
 /
 &wt type = 'END' , /
DISANG=disang.rest
LISTOUT=POUT

Note: ig = -1. Setting random seed to   911089 based on wallclock time in
      microseconds.

--------------------------------------------------------------------------------
   1.  RESOURCE   USE:
--------------------------------------------------------------------------------

 getting box info from netcdf restart file
 NATOM  =   40895 NTYPES =      18 NBONH =   39903 MBONA  =     950
 NTHETH =    2062 MTHETA =    1275 NPHIH =    4031 MPHIA  =    3894
 NHPARM =       0 NPARM  =       0 NNB   =   62108 NRES   =   13178
 NBONA  =     950 NTHETA =    1275 NPHIA =    3894 NUMBND =      87
 NUMANG =     186 NPTRA  =     207 NATYP =      51 NPHB   =       1
 IFBOX  =       1 NMXRS  =      29 IFCAP =       0 NEXTRA =       0
 NCOPY  =       0

     BOX TYPE: RECTILINEAR

--------------------------------------------------------------------------------
   2.  CONTROL  DATA  FOR  THE  RUN
--------------------------------------------------------------------------------

default_name

General flags:
     imin    =       0, nmropt  =       1

Nature and format of input:
     ntx     =       5, irest   =       1, ntrx    =       1

Nature and format of output:
     ntxo    =       1, ntpr    =    1000, ntrx    =       1, ntwr    =    1000
     iwrap   =       1, ntwx    =    2500, ntwv    =       0, ntwe    =       0
     ioutfm  =       1, ntwprt  =    1831, idecomp =       0, rbornstat=      0

Potential function:
     ntf     =       1, ntb     =       2, igb     =       0, nsnb    =      25
     ipol    =       0, gbsa    =       0, iesp    =       0
     dielc   =   1.00000, cut     =   9.00000, intdiel =   1.00000

Frozen or restrained atoms:
     ibelly  =       0, ntr     =       1
     restraint_wt =  50.00000

Molecular dynamics:
     nstlim  =    200000, nscm    =         0, nrespa  =         1
     t       =   0.00000, dt      =   0.00400, vlimit  =  -1.00000

Langevin dynamics temperature regulation:
     ig      =  911089
     temp0   = 298.15000, tempi   =   0.00000, gamma_ln=   1.00000

Pressure regulation:
     ntp     =       1
     pres0   =   1.00000, comp    =  44.60000, taup    =   1.00000
     Monte-Carlo Barostat:
     mcbarint  =     100

SHAKE:
     ntc     =       2, jfastw  =       0
     tol     =   0.00001

NMR refinement options:
     iscale  =       0, noeskp  =       1, ipnlty  =       1, mxsub   =       1
     scalm   = 100.00000, pencut  =  -1.00000, tausw   =   0.10000

Free energy options:
     icfe    =       1, ifsc    =       0, klambda =       1
     clambda =  0.0092, scalpha =  0.5000, scbeta  = 12.0000
     sceeorder =       2
     dynlmb =  0.0000 logdvdl =       0

FEP MBAR options:
     ifmbar  =       1,  bar_intervall =      100
     mbar_states =      12

Ewald parameters:
     verbose =       0, ew_type =       0, nbflag  =       1, use_pme =       1
     vdwmeth =       1, eedmeth =       1, netfrc  =       1
     Box X =   63.710   Box Y =   59.311   Box Z =  113.560
     Alpha =   90.000   Beta  =   90.000   Gamma =   90.000
     NFFT1 =   64       NFFT2 =   64       NFFT3 =  120
     Cutoff=    9.000   Tol   =0.100E-04
     Ewald Coefficient =  0.30768
     Interpolation order =    4

    LOADING THE CONSTRAINED ATOMS AS GROUPS

   5.  REFERENCE ATOM COORDINATES

  default_name
     Mask :1-3; matches     3 atoms
     TI Mask 1 :113; matches     29 atoms
     TI Mask 2 :114; matches     29 atoms
     TI region 1:   40866 atoms
     TI region 2:   40866 atoms
Removing charge of       0.1324 from atom    1803
Removing charge of      -0.3482 from atom    1804
Removing charge of       0.6867 from atom    1805
Removing charge of      -0.6325 from atom    1806
Removing charge of      -0.2038 from atom    1807
Removing charge of       0.0953 from atom    1808
Removing charge of      -0.3903 from atom    1809
Removing charge of       0.3402 from atom    1810
Removing charge of      -0.1179 from atom    1811
Removing charge of      -0.1090 from atom    1812
Removing charge of      -0.1345 from atom    1813
Removing charge of      -0.1210 from atom    1814
Removing charge of      -0.1345 from atom    1815
Removing charge of      -0.1090 from atom    1816
Removing charge of      -0.7500 from atom    1817
Removing charge of       0.1891 from atom    1818
Removing charge of       0.1660 from atom    1819
Removing charge of       0.0607 from atom    1820
Removing charge of       0.0607 from atom    1821
Removing charge of       0.0607 from atom    1822
Removing charge of       0.1440 from atom    1823
Removing charge of       0.1360 from atom    1824
Removing charge of       0.1340 from atom    1825
Removing charge of       0.1360 from atom    1826
Removing charge of       0.1440 from atom    1827
Removing charge of       0.4328 from atom    1828
Removing charge of       0.0440 from atom    1829
Removing charge of       0.0440 from atom    1830
Removing charge of       0.0440 from atom    1831
Total charge of  -0.00000100 removed from      29 atoms

    MBAR - lambda values considered:
      12 total:  0.0092 0.0479 0.1150 0.2063 0.3161 0.4374 0.5626 0.6839 0.7937 0.8850 0.9521 0.9908
    Extra energies will be computed   2000 times.
     Checking for mismatched coordinates.

--------------------------------------------------------------------------------
   3.  ATOMIC COORDINATES AND VELOCITIES
--------------------------------------------------------------------------------

default_name
 begin time read from input coords =   270.000 ps

           Begin reading energy term weight changes/NMR restraints
 WEIGHT CHANGES:
                         ** No weight changes given **

 RESTRAINTS:
 Requested file redirections:
  DISANG    = disang.rest
  LISTOUT   = POUT
 Restraints will be read from file: disang.rest
Here are comments from the DISANG input file:
# Anchor atoms  :58@CA  :79@CA  :105@CA  :113@C3  :113@C9  :113@C11  stage = pre

                       Number of restraints read =    54

                  Done reading weight changes/NMR restraints

 Number of triangulated 3-point waters found:    13000

     Sum of charges for TI region  1 =  -0.00000106
     Skip neutralizing charges...

     Sum of charges for TI region  2 =  -0.00000007
     Skip neutralizing charges...

--------------------------------------------------------------------------------
   4.  RESULTS
 NSTEP =     1000   TIME(PS) =     274.000  TEMP(K) =   299.59  PRESS =     0.0
 Etot   =   -106823.8053  EKtot   =     24620.0299  EPtot      =   -131443.8352
 BOND   =       431.0494  ANGLE   =      1005.2081  DIHED      =      1378.2309
 1-4 NB =       427.6886  1-4 EEL =      5449.0416  VDWAALS    =     17231.9030
 EELEC  =   -157387.3329  EHBOND  =         0.0000  RESTRAINT  =        20.3761
 EAMBER (non-restraint)  =   -131464.2113
 EKCMT  =         0.0000  VIRIAL  =         0.0000  VOLUME     =    421739.5357
                                                    Density    =         0.9832
 DV/DL  =       -12.2004
 ------------------------------------------------------------------------------

      A V E R A G E S   O V E R     200 S T E P S

 NSTEP =   200000   TIME(PS) =    1070.000  TEMP(K) =   298.25  PRESS =     0.0
 Etot   =   -107751.4913  EKtot   =     24509.9439  EPtot      =   -132261.4352
 BOND   =       421.9673  ANGLE   =      1005.5615  DIHED      =      1374.6861
 1-4 NB =       423.3336  1-4 EEL =      5441.7160  VDWAALS    =     17665.6359
 EELEC  =   -158613.5330  EHBOND  =         0.0000  RESTRAINT  =        19.1974
 EAMBER (non-restraint)  =   -132280.6326
 EKCMT  =         0.0000  VIRIAL  =         0.0000  VOLUME     =    412132.8753
                                                    Density    =         1.0061
 DV/DL  =       -13.4312
 ------------------------------------------------------------------------------

      R M S  F L U C T U A T I O N S

 NSTEP =   200000   TIME(PS) =    1070.000  TEMP(K) =     1.48  PRESS =     0.0
 Etot   =       227.8884  EKtot   =       121.5771  EPtot      =       190.9440
 BOND   =        18.5855  ANGLE   =        25.1042  DIHED      =        12.9284
 1-4 NB =         8.4097  1-4 EEL =        24.1241  VDWAALS    =       186.8351
 EELEC  =       301.8810  EHBOND  =         0.0000  RESTRAINT  =         4.3289
 EAMBER (non-restraint)  =       186.6151
 EKCMT  =         0.0000  VIRIAL  =         0.0000  VOLUME     =      1256.2130
                                                    Density    =         0.0030
 DV/DL  =         4.3254
 ------------------------------------------------------------------------------

      A V E R A G E S   O V E R     200 S T E P S

 NSTEP =   200000   TIME(PS) =    1070.000  TEMP(K) =   298.25  PRESS =     0.0
 Etot   =   -107751.4913  EKtot   =     24509.9439  EPtot      =   -132261.4352
 BOND   =       421.9673  ANGLE   =      1005.5615  DIHED      =      1374.6861
 1-4 NB =       423.3336  1-4 EEL =      5441.7160  VDWAALS    =     17665.6359
 EELEC  =   -158613.5330  EHBOND  =         0.0000  RESTRAINT  =        19.1974
 EAMBER (non-restraint)  =   -132280.6326
 EKCMT  =         0.0000  VIRIAL  =         0.0000  VOLUME     =    412132.8753
                                                    Density    =         1.0061
 DV/DL  =       -13.4312
 ------------------------------------------------------------------------------

      R M S  F L U C T U A T I O N S

 NSTEP =   200000   TIME(PS) =    1070.000  TEMP(K) =     1.48  PRESS =     0.0
 Etot   =       227.8884  EKtot   =       121.5771  EPtot      =       190.9440
 BOND   =        18.5855  ANGLE   =        25.1042  DIHED      =        12.9284
 1-4 NB =         8.4097  1-4 EEL =        24.1241  VDWAALS    =       186.8351
 EELEC  =       301.8810  EHBOND  =         0.0000  RESTRAINT  =         4.3289
 EAMBER (non-restraint)  =       186.6151
 EKCMT  =         0.0000  VIRIAL  =         0.0000  VOLUME     =      1256.2130
                                                    Density    =         0.0030
 DV/DL  =         4.3254
 ------------------------------------------------------------------------------

      DV/DL, AVERAGES OVER     200 STEPS

 NSTEP =   200000   TIME(PS) =    1070.000  TEMP(K) =     1.48  PRESS =     0.0
 Etot   =         0.0000  EKtot   =         0.0000  EPtot      =         0.0000
 BOND   =         0.0000  ANGLE   =         0.0000  DIHED      =         0.0000
 1-4 NB =         0.0000  1-4 EEL =       -36.1265  VDWAALS    =         0.0000
 EELEC  =        31.0377  EHBOND  =         0.0000  RESTRAINT  =         0.0000
 EKCMT  =         0.0000  VIRIAL  =         0.0000  VOLUME     =         0.0000
                                                    Density    =         0.0000
 ------------------------------------------------------------------------------
